-------------------------------------------------------
          Amber 22 PMEMD                              2022
          -------------------------------------------------------

  [-O]verwriting output

File Assignments:

 Here is the input file:

Generated by amber_runner
&cntrl
    cut = 8.0
    dt = 0.002
    imin = 0
    ioutfm = 1
    irest = 0
    nstlim = 10000
    ntb = 1
    ntc = 2
    ntf = 2
    ntpr = 50
    ntr = 1
    ntt = 1
    ntwr = 1000
    ntwx = 200
    ntx = 1
    temp0 = 298.0
    tempi = 0.0
/
Keep protein fixed with weak restraints
10.0
RES 1 594
END
END

Note: ig = -1. Setting random seed to   558519 based on wallclock time in
      microseconds.

--------------------------------------------------------------------------------
   1.  RESOURCE   USE:
--------------------------------------------------------------------------------

 getting box info from netcdf restart file
 NATOM  =   15240 NTYPES =      16 NBONH =   10427 MBONA  =    4878
 NTHETH =   10523 MTHETA =    6588 NPHIH =   21926 MPHIA  =   20693
 NHPARM =       0 NPARM  =       0 NNB   =   59455 NRES   =    2519
 NBONA  =    4878 NTHETA =    6588 NPHIA =   20693 NUMBND =      63
 NUMANG =     143 NPTRA  =     189 NATYP =      34 NPHB   =       0
 IFBOX  =       1 NMXRS  =      24 IFCAP =       0 NEXTRA =       0
 NCOPY  =       0

     BOX TYPE: RECTILINEAR

--------------------------------------------------------------------------------
   2.  CONTROL  DATA  FOR  THE  RUN
--------------------------------------------------------------------------------

default_name

General flags:
     imin    =       0, nmropt  =       0

Nature and format of input:
     ntx     =       1, irest   =       0, ntrx    =       1

Nature and format of output:
     ntxo    =       2, ntpr    =      50, ntrx    =       1, ntwr    =    1000
     iwrap   =       0, ntwx    =     200, ntwv    =       0, ntwe    =       0
     ioutfm  =       1, ntwprt  =       0, idecomp =       0, rbornstat=      0

Potential function:
     ntf     =       2, ntb     =       1, igb     =       0, nsnb    =      25
     ipol    =       0, gbsa    =       0, iesp    =       0
     dielc   =   1.00000, cut     =   8.00000, intdiel =   1.00000

Frozen or restrained atoms:
     ibelly  =       0, ntr     =       1
     restraint_wt =   0.00000

Molecular dynamics:
     nstlim  =     10000, nscm    =         0, nrespa  =         1
     t       =   0.00000, dt      =   0.00200, vlimit  =  -1.00000

Berendsen (weak-coupling) temperature regulation:
     temp0   = 298.00000, tempi   =   0.00000, tautp   =   1.00000

SHAKE:
     ntc     =       2, jfastw  =       0
     tol     =   0.00001

Ewald parameters:
     verbose =       0, ew_type =       0, nbflag  =       1, use_pme =       1
     vdwmeth =       1, eedmeth =       1, netfrc  =       1
     Box X =   51.853   Box Y =   51.853   Box Z =   60.700
     Alpha =   90.000   Beta  =   90.000   Gamma =  120.000
     NFFT1 =   56       NFFT2 =   56       NFFT3 =   64
     Cutoff=    8.000   Tol   =0.100E-04
     Ewald Coefficient =  0.34864
     Interpolation order =    4
     Setting ifbox to 3 for non-orthogonal unit cell

    LOADING THE CONSTRAINED ATOMS AS GROUPS

   5.  REFERENCE ATOM COORDINATES

    ----- READING GROUP     1; TITLE:
 Keep protein fixed with weak restraints

     GROUP    1 HAS HARMONIC CONSTRAINTS    10.00000
 GRP    1 RES    1 TO   594
      Number of atoms in this group  =  9479
    ----- END OF GROUP READ -----

--------------------------------------------------------------------------------
   3.  ATOMIC COORDINATES AND VELOCITIES
--------------------------------------------------------------------------------

default_name
 begin time read from input coords =     0.000 ps

 Number of triangulated 3-point waters found:     1918

     Sum of charges from parm topology file =  -0.00000051
     Forcing neutrality...

--------------------------------------------------------------------------------
   4.  RESULTS
 NSTEP =        0   TIME(PS) =       0.000  TEMP(K) =     0.00  PRESS =     0.0
 Etot   =    -26810.0591  EKtot   =         0.0000  EPtot      =    -26810.0591
 BOND   =       341.6491  ANGLE   =      1351.6362  DIHED      =      7510.2390
 1-4 NB =      1952.8195  1-4 EEL =     16237.1649  VDWAALS    =     -3568.9794
 EELEC  =    -72371.0584  EHBOND  =         0.0000  RESTRAINT  =     21736.4701
 EAMBER (non-restraint)  =    -48546.5291
 ------------------------------------------------------------------------------

      A V E R A G E S   O V E R     200 S T E P S

 NSTEP =    10000   TIME(PS) =      20.000  TEMP(K) =   296.33  PRESS =     0.0
 Etot   =    -23162.2597  EKtot   =     10391.3112  EPtot      =    -33553.5709
 BOND   =      1384.3751  ANGLE   =      3678.1360  DIHED      =      8037.7901
 1-4 NB =      2591.9192  1-4 EEL =     16749.9255  VDWAALS    =     -3640.7096
 EELEC  =    -65946.9558  EHBOND  =         0.0000  RESTRAINT  =      3591.9484
 EAMBER (non-restraint)  =    -37145.5193
 ------------------------------------------------------------------------------

      R M S  F L U C T U A T I O N S

 NSTEP =    10000   TIME(PS) =      20.000  TEMP(K) =     7.21  PRESS =     0.0
 Etot   =       203.7323  EKtot   =       252.9134  EPtot      =       141.4567
 BOND   =       206.0091  ANGLE   =       365.0106  DIHED      =        26.6928
 1-4 NB =        20.3410  1-4 EEL =        50.5568  VDWAALS    =       203.1051
 EELEC  =       419.4746  EHBOND  =         0.0000  RESTRAINT  =       384.8235
 EAMBER (non-restraint)  =      -243.3668
 ------------------------------------------------------------------------------
