-------------------------------------------------------
          Amber 22 PMEMD                              2022
          -------------------------------------------------------

  [-O]verwriting output

File Assignments:

 Here is the input file:

Generated by amber_runner
&cntrl
    imin = 0
    irest = 1
    ntx = 5
    iwrap = 1
    ntb = 1
    ntt = 3
    gamma_ln = 3.0
    ig = -1
    tempi = 298.0
    temp0 = 298.0
    ntp = 0
    pres0 = 1.0
    taup = 2.0
    cut = 8.0
    ntr = 0
    ntc = 2
    ntf = 2
    nstlim = 5000
    nscm = 100
    dt = 0.002
    ntpr = 100
    ntwx = 100
    ntwr = 5000
    ioutfm = 1
/

&xray
    spacegroup_name = 'P1'
    pdb_infile = 'inputs/wbox.pdb'
    pdb_read_coordinates = .false.
    reflection_infile = '0_prepare/sf.dat'
    atom_selection_mask = ':1-594'
    xray_weight_initial = 0.0
    xray_weight_final = 1.0
    target = 'ml'
    bulk_solvent_model = 'afonine-2013'
/

Note: ig = -1. Setting random seed to   230570 based on wallclock time in
      microseconds.

--------------------------------------------------------------------------------
   1.  RESOURCE   USE:
--------------------------------------------------------------------------------

 getting box info from netcdf restart file
 NATOM  =   15240 NTYPES =      16 NBONH =   10427 MBONA  =    4878
 NTHETH =   10523 MTHETA =    6588 NPHIH =   21926 MPHIA  =   20693
 NHPARM =       0 NPARM  =       0 NNB   =   59455 NRES   =    2519
 NBONA  =    4878 NTHETA =    6588 NPHIA =   20693 NUMBND =      63
 NUMANG =     143 NPTRA  =     189 NATYP =      34 NPHB   =       0
 IFBOX  =       1 NMXRS  =      24 IFCAP =       0 NEXTRA =       0
 NCOPY  =       0

 XRAY_SYMMETRY_TYPE not found in PRMTOP file; assuming P1

     BOX TYPE: RECTILINEAR

--------------------------------------------------------------------------------
   2.  CONTROL  DATA  FOR  THE  RUN
--------------------------------------------------------------------------------

default_name

General flags:
     imin    =       0, nmropt  =       0

Nature and format of input:
     ntx     =       5, irest   =       1, ntrx    =       1

Nature and format of output:
     ntxo    =       2, ntpr    =     100, ntrx    =       1, ntwr    =    5000
     iwrap   =       1, ntwx    =     100, ntwv    =       0, ntwe    =       0
     ioutfm  =       1, ntwprt  =       0, idecomp =       0, rbornstat=      0

Potential function:
     ntf     =       2, ntb     =       1, igb     =       0, nsnb    =      25
     ipol    =       0, gbsa    =       0, iesp    =       0
     dielc   =   1.00000, cut     =   8.00000, intdiel =   1.00000

Frozen or restrained atoms:
     ibelly  =       0, ntr     =       0

Molecular dynamics:
     nstlim  =      5000, nscm    =       100, nrespa  =         1
     t       =   0.00000, dt      =   0.00200, vlimit  =  -1.00000

Langevin dynamics temperature regulation:
     ig      =  230570
     temp0   = 298.00000, tempi   = 298.00000, gamma_ln=   3.00000

SHAKE:
     ntc     =       2, jfastw  =       0
     tol     =   0.00001

Ewald parameters:
     verbose =       0, ew_type =       0, nbflag  =       1, use_pme =       1
     vdwmeth =       1, eedmeth =       1, netfrc  =       1
     Box X =   51.853   Box Y =   51.853   Box Z =   60.700
     Alpha =   90.000   Beta  =   90.000   Gamma =  120.000
     NFFT1 =   56       NFFT2 =   56       NFFT3 =   64
     Cutoff=    8.000   Tol   =0.100E-04
     Ewald Coefficient =  0.34864
     Interpolation order =    4

X-ray Refinement Parameters:
     PDB InFile: inputs/wbox.pdb
     PDB Read Coordinates: F
     PDB Use SegID: F
     PDB Wrap Names: F
     Spacegroup: P 1
     Reflection InFile: 0_prepare/sf.dat
     X-ray weights:  0.000E+00 ...  0.100E+01
     Use target: ml
     Scale update Interval:   100
     Solvent Mask Update Interval:   100
     Solvent scale:   0.350, B-factor:  46.000
     Atom Selection Mask: :1-594
     Setting ifbox to 3 for non-orthogonal unit cell

--------------------------------------------------------------------------------
   3.  ATOMIC COORDINATES AND VELOCITIES
--------------------------------------------------------------------------------

default_name
 begin time read from input coords =    20.000 ps

PDB: All atoms read successfully.
XRAY: UNIT CELL=    51.853   51.853   60.700  90.00  90.00 120.00
Found   9479 atoms in :1-594;
 atomic size       18380           6
 Number of triangulated 3-point waters found:     1918

     Sum of charges from parm topology file =  -0.00000051
     Forcing neutrality...

--------------------------------------------------------------------------------
   4.  RESULTS
 NSTEP =      100   TIME(PS) =      20.200  TEMP(K) =   309.05  PRESS =     0.0
 Etot   =    -25631.2686  EKtot   =     10837.3535  EPtot      =    -36468.6221
 BOND   =      1753.8845  ANGLE   =      4742.0383  DIHED      =      8503.5568
 1-4 NB =      2264.6256  1-4 EEL =     16100.5564  VDWAALS    =     -4471.2753
 EELEC  =    -66789.6657  EHBOND  =         0.0000  RESTRAINT  =      1427.6573
 Exray  =      1427.6573  Rwork   =         0.3135  Rfree      =         0.2984
 EAMBER (non-restraint)  =    -37896.2794
 ------------------------------------------------------------------------------

      A V E R A G E S   O V E R      50 S T E P S

 NSTEP =     5000   TIME(PS) =      30.000  TEMP(K) =   298.91  PRESS =     0.0
 Etot   =      5921.5256  EKtot   =     10481.7439  EPtot      =     -4560.2183
 BOND   =      1789.3305  ANGLE   =      4755.5888  DIHED      =      8349.7112
 1-4 NB =      2330.6360  1-4 EEL =     16270.8147  VDWAALS    =     -4497.8468
 EELEC  =    -67931.8244  EHBOND  =         0.0000  RESTRAINT  =     34373.3718
 Exray  =     66381.9424  Rwork   =         0.2202  Rfree      =         0.2321
 EAMBER (non-restraint)  =    -38933.5901
 ------------------------------------------------------------------------------

      R M S  F L U C T U A T I O N S

 NSTEP =     5000   TIME(PS) =      30.000  TEMP(K) =     2.76  PRESS =     0.0
 Etot   =     18920.5726  EKtot   =        96.9268  EPtot      =     18960.2911
 BOND   =        35.1211  ANGLE   =        68.6319  DIHED      =        43.5456
 1-4 NB =        61.0920  1-4 EEL =       101.4369  VDWAALS    =        62.6684
 EELEC  =       305.0799  EHBOND  =         0.0000  RESTRAINT  =     19066.7699
 Exray  =     66381.9424  Rwork   =         0.2202  Rfree      =         0.2321
 EAMBER (non-restraint)  =      -106.4788
 ------------------------------------------------------------------------------
